Version 4
SHEET 1 1520 1304
WIRE 304 -128 96 -128
WIRE 384 -128 304 -128
WIRE 528 -128 448 -128
WIRE 544 -128 528 -128
WIRE 656 -128 608 -128
WIRE -1088 -112 -1392 -112
WIRE 304 -64 304 -128
WIRE -1392 0 -1392 -112
WIRE -1392 0 -1424 0
WIRE -1344 0 -1376 0
WIRE -576 0 -1120 0
WIRE -176 0 -176 -16
WIRE -128 0 -176 0
WIRE 96 0 96 -128
WIRE 96 0 -128 0
WIRE 144 0 96 0
WIRE 464 0 464 -64
WIRE 528 0 528 -128
WIRE 528 0 464 0
WIRE 784 16 784 -272
WIRE -1376 48 -1376 0
WIRE -1376 48 -1536 48
WIRE -1344 80 -1408 80
WIRE -1088 80 -1088 -112
WIRE -1088 80 -1120 80
WIRE -1008 80 -1088 80
WIRE -1408 96 -1408 80
WIRE 48 96 -80 96
WIRE 144 96 112 96
WIRE 736 96 464 96
WIRE -1536 160 -1536 48
WIRE -1472 160 -1536 160
WIRE -1424 160 -1472 160
WIRE -1008 160 -1120 160
WIRE 784 160 784 112
WIRE 1040 160 784 160
WIRE 1168 160 1120 160
WIRE -1088 192 -1088 80
WIRE -128 192 -128 0
WIRE -48 192 -128 192
WIRE 144 192 32 192
WIRE 656 192 656 -128
WIRE 656 192 464 192
WIRE 784 192 784 160
WIRE 784 192 656 192
WIRE 784 208 784 192
WIRE -80 288 -80 96
WIRE -80 288 -96 288
WIRE 144 288 -80 288
WIRE 736 288 464 288
WIRE -576 352 -576 0
WIRE -96 352 -96 288
WIRE -96 352 -576 352
WIRE 144 384 64 384
WIRE 784 384 784 304
WIRE 784 384 464 384
WIRE 64 400 64 384
WIRE 784 480 784 384
WIRE 64 496 64 480
WIRE 304 496 304 448
WIRE 304 496 64 496
WIRE 64 560 64 496
WIRE -1264 720 -1568 720
WIRE -1568 832 -1568 720
WIRE -1568 832 -1600 832
WIRE -1520 832 -1552 832
WIRE -1056 832 -1296 832
WIRE -752 848 -816 848
WIRE -640 848 -688 848
WIRE -576 848 -640 848
WIRE -448 848 -512 848
WIRE -400 848 -448 848
WIRE -272 848 -336 848
WIRE -240 848 -272 848
WIRE -112 848 -176 848
WIRE -80 848 -112 848
WIRE 48 848 -16 848
WIRE 128 848 48 848
WIRE 240 848 208 848
WIRE -1552 880 -1552 832
WIRE -1552 880 -1712 880
WIRE -1520 912 -1584 912
WIRE -1264 912 -1264 720
WIRE -1264 912 -1296 912
WIRE -1184 912 -1264 912
WIRE -1584 928 -1584 912
WIRE -448 976 -448 912
WIRE -448 976 -688 976
WIRE -112 976 -112 912
WIRE -112 976 -448 976
WIRE -1712 992 -1712 880
WIRE -1648 992 -1712 992
WIRE -1600 992 -1648 992
WIRE -1184 992 -1296 992
WIRE -1264 1024 -1264 912
WIRE -1056 1072 -1056 832
WIRE -896 1072 -1056 1072
WIRE -640 1072 -640 912
WIRE -640 1072 -688 1072
WIRE -272 1072 -272 912
WIRE -272 1072 -640 1072
FLAG 784 480 0
FLAG -256 -16 0
FLAG 64 560 0
FLAG 784 -352 0
FLAG 1248 160 Vout
IOPIN 1248 160 In
FLAG 48 112 0
FLAG -1504 0 0
FLAG -1408 96 0
FLAG -1088 256 0
FLAG -1008 240 0
FLAG -1472 240 0
FLAG 240 848 DicksonVOut
IOPIN 240 848 In
FLAG -896 848 0
FLAG -896 1088 0
FLAG 48 912 0
FLAG -1680 832 0
FLAG -1584 928 0
FLAG -1264 1088 0
FLAG -1184 1072 0
FLAG -1648 1072 0
FLAG -768 976 0
FLAG -768 1072 0
SYMBOL res 48 176 R90
WINDOW 0 0 56 VBottom 2
WINDOW 3 32 56 VTop 2
SYMATTR InstName R1
SYMATTR Value 402K
SYMATTR SpiceLine tol=1 pwr=0.1
SYMBOL voltage -160 -16 R90
WINDOW 0 -32 56 VBottom 2
WINDOW 3 32 56 VTop 2
WINDOW 123 0 0 Left 0
WINDOW 39 0 0 Left 0
SYMATTR InstName V1
SYMATTR Value 5.1
SYMBOL zener 384 -112 R270
WINDOW 0 32 32 VTop 2
WINDOW 3 0 32 VBottom 2
SYMATTR InstName D3
SYMATTR Value KDZLV68
SYMATTR Description Diode
SYMATTR Type diode
SYMBOL voltage 784 -256 R180
WINDOW 0 24 96 Left 2
WINDOW 3 24 16 Left 2
WINDOW 123 0 0 Left 0
WINDOW 39 0 0 Left 0
SYMATTR InstName V2
SYMATTR Value 48
SYMBOL voltage -1552 448 R90
WINDOW 0 -32 56 VBottom 2
WINDOW 3 32 56 VTop 2
WINDOW 123 0 0 Left 0
WINDOW 39 0 0 Left 0
SYMATTR InstName V3
SYMATTR Value PULSE(0 5 10u 1n 1n 1.25u 2.5u)
SYMBOL ind 1136 144 R90
WINDOW 0 5 56 VBottom 2
WINDOW 3 32 56 VTop 2
SYMATTR InstName L1
SYMATTR Value 500n
SYMATTR SpiceLine Ipk=18 Rser=0.0022 Rpar=952.4 Cpar=1.904p mfg="Würth Elektronik" pn="7447798050 WE-PDF 1064"
SYMBOL res 48 384 R0
SYMATTR InstName R2
SYMATTR Value 1000k
SYMBOL res 1264 144 R90
WINDOW 0 0 56 VBottom 2
WINDOW 3 32 56 VTop 2
SYMATTR InstName R3
SYMATTR Value 0.1
SYMBOL polcap 608 -144 R90
WINDOW 0 0 32 VBottom 2
WINDOW 3 32 32 VTop 2
SYMATTR InstName C1
SYMATTR Value 470µ
SYMATTR Description Capacitor
SYMATTR Type cap
SYMATTR SpiceLine V=10 Irms=235m Rser=0.194 Lser=5.55n mfg="Würth Elektronik" pn="860020273011 WCAP-ATG5 6,3x11" type="Al electrolytic"
SYMBOL nmos 736 16 R0
SYMATTR InstName M1
SYMATTR Value RUC002N05
SYMBOL nmos 736 208 R0
SYMATTR InstName M2
SYMATTR Value RUC002N05
SYMBOL PowerProducts\\LTC7061 304 192 R0
SYMATTR InstName U2
SYMBOL Digital\\schmtinv 48 32 R0
WINDOW 3 -118 4 Left 2
SYMATTR Value td=10n Vhigh=3.3
SYMATTR InstName A2
SYMBOL voltage -1408 0 R90
WINDOW 0 -32 56 VBottom 2
WINDOW 3 32 56 VTop 2
WINDOW 123 0 0 Left 0
WINDOW 39 0 0 Left 0
SYMATTR InstName V4
SYMATTR Value 3.3
SYMBOL SpecialFunctions\\LTC6992-3 -1232 80 R0
SYMATTR InstName U1
SYMBOL cap -1104 192 R0
SYMATTR InstName C2
SYMATTR Value 100µ
SYMATTR SpiceLine V=4 Irms=0 Rser=0 Lser=0
SYMBOL res -1024 144 R0
SYMATTR InstName R5
SYMATTR Value 182k
SYMATTR SpiceLine tol=1 pwr=0.1
SYMBOL res -1024 64 R0
SYMATTR InstName R6
SYMATTR Value 976k
SYMATTR SpiceLine tol=1 pwr=0.1
SYMBOL res -1328 144 R90
WINDOW 0 0 56 VBottom 2
WINDOW 3 32 56 VTop 2
SYMATTR InstName R4
SYMATTR Value 2k
SYMBOL res -1456 256 R180
WINDOW 0 36 76 Left 2
WINDOW 3 36 40 Left 2
SYMATTR InstName R7
SYMATTR Value 2.2k
SYMBOL voltage -800 848 R90
WINDOW 0 -32 56 VBottom 2
WINDOW 3 32 56 VTop 2
WINDOW 123 0 0 Left 0
WINDOW 39 0 0 Left 0
SYMATTR InstName V5
SYMATTR Value 5
SYMBOL polcap -656 848 R0
WINDOW 3 24 56 Left 2
SYMATTR Value 150µ
SYMATTR InstName C3
SYMATTR Description Capacitor
SYMATTR Type cap
SYMATTR SpiceLine V=80 Irms=500m Rser=0.2506 Lser=36.1n mfg="Würth Elektronik" pn="865081763010 WCAP-ASLI 16x17" type="Al electrolytic"
SYMBOL Digital\\schmtinv -896 1008 R0
WINDOW 3 -118 4 Left 2
SYMATTR Value td=10n Vhigh=5
SYMATTR InstName A1
SYMBOL polcap -464 848 R0
WINDOW 3 24 56 Left 2
SYMATTR Value 150µ
SYMATTR InstName C4
SYMATTR Description Capacitor
SYMATTR Type cap
SYMATTR SpiceLine V=80 Irms=500m Rser=0.2506 Lser=36.1n mfg="Würth Elektronik" pn="865081763010 WCAP-ASLI 16x17" type="Al electrolytic"
SYMBOL polcap -288 848 R0
WINDOW 3 24 56 Left 2
SYMATTR Value 150µ
SYMATTR InstName C5
SYMATTR Description Capacitor
SYMATTR Type cap
SYMATTR SpiceLine V=80 Irms=500m Rser=0.2506 Lser=36.1n mfg="Würth Elektronik" pn="865081763010 WCAP-ASLI 16x17" type="Al electrolytic"
SYMBOL polcap -128 848 R0
WINDOW 3 24 56 Left 2
SYMATTR Value 150µ
SYMATTR InstName C6
SYMATTR Description Capacitor
SYMATTR Type cap
SYMATTR SpiceLine V=80 Irms=500m Rser=0.2506 Lser=36.1n mfg="Würth Elektronik" pn="865081763010 WCAP-ASLI 16x17" type="Al electrolytic"
SYMBOL schottky -576 864 R270
WINDOW 0 32 32 VTop 2
WINDOW 3 0 32 VBottom 2
SYMATTR InstName D1
SYMATTR Value RB228T100NZ
SYMATTR Description Diode
SYMATTR Type diode
SYMBOL schottky -400 864 R270
WINDOW 0 32 32 VTop 2
WINDOW 3 0 32 VBottom 2
SYMATTR InstName D2
SYMATTR Value RB228NS150
SYMATTR Description Diode
SYMATTR Type diode
SYMBOL schottky -240 864 R270
WINDOW 0 32 32 VTop 2
WINDOW 3 0 32 VBottom 2
SYMATTR InstName D4
SYMATTR Value RB228NS150
SYMATTR Description Diode
SYMATTR Type diode
SYMBOL schottky -80 864 R270
WINDOW 0 32 32 VTop 2
WINDOW 3 0 32 VBottom 2
SYMATTR InstName D5
SYMATTR Value RB228NS150
SYMATTR Description Diode
SYMATTR Type diode
SYMBOL polcap 32 848 R0
WINDOW 3 24 56 Left 2
SYMATTR Value 150µ
SYMATTR InstName C7
SYMATTR Description Capacitor
SYMATTR Type cap
SYMATTR SpiceLine V=80 Irms=500m Rser=0.2506 Lser=36.1n mfg="Würth Elektronik" pn="865081763010 WCAP-ASLI 16x17" type="Al electrolytic"
SYMBOL voltage -1584 832 R90
WINDOW 0 -32 56 VBottom 2
WINDOW 3 32 56 VTop 2
WINDOW 123 0 0 Left 0
WINDOW 39 0 0 Left 0
SYMATTR InstName V6
SYMATTR Value 5
SYMBOL SpecialFunctions\\LTC6992-3 -1408 912 R0
SYMATTR InstName U3
SYMBOL cap -1280 1024 R0
SYMATTR InstName C8
SYMATTR Value 100µ
SYMATTR SpiceLine V=4 Irms=0 Rser=0 Lser=0
SYMBOL res -1200 976 R0
SYMATTR InstName R8
SYMATTR Value 102k
SYMATTR SpiceLine tol=1 pwr=0.1
SYMBOL res -1200 896 R0
SYMATTR InstName R9
SYMATTR Value 976k
SYMATTR SpiceLine tol=1 pwr=0.1
SYMBOL res -1504 976 R90
WINDOW 0 0 56 VBottom 2
WINDOW 3 32 56 VTop 2
SYMATTR InstName R10
SYMATTR Value 2k
SYMBOL res -1632 1088 R180
WINDOW 0 36 76 Left 2
WINDOW 3 36 40 Left 2
SYMATTR InstName R11
SYMATTR Value 2k
SYMBOL schottky -752 864 R270
WINDOW 0 32 32 VTop 2
WINDOW 3 0 32 VBottom 2
SYMATTR InstName D6
SYMATTR Value RB228T100NZ
SYMATTR Description Diode
SYMATTR Type diode
SYMBOL res 224 832 R90
WINDOW 0 0 56 VBottom 2
WINDOW 3 32 56 VTop 2
SYMATTR InstName R12
SYMATTR Value 10
SYMATTR SpiceLine tol=1 pwr=0.1
SYMBOL voltage -672 976 R90
WINDOW 0 -32 56 VBottom 2
WINDOW 3 32 56 VTop 2
WINDOW 123 0 0 Left 0
WINDOW 39 0 0 Left 0
SYMATTR InstName V7
SYMATTR Value PULSE(0 3.3 500u 0 0 500u 1m)
SYMBOL voltage -672 1072 R90
WINDOW 0 -32 56 VBottom 2
WINDOW 3 32 56 VTop 2
WINDOW 123 0 0 Left 0
WINDOW 39 0 0 Left 0
SYMATTR InstName V8
SYMATTR Value PULSE(0 3.3 0 0 0 500u 1m)
TEXT -1664 360 Left 2 !.tran 0 200us 0
